*GROWTH ASPECTS OUTPUT FILE

*DSSAT Cropping System Model Ver. 4.6.0.030 -forage       MAR 27, 2014; 06:11:48

*RUN   1        : 0 KG N/HA                 PRFRM046 UFGA0601    1
 MODEL          : PRFRM046 - Tifton 85 bermud
 EXPERIMENT     : UFGA0601 G0 NITROGEN RESPONSE OF TIFTON 85 BERMUDAGRASS REGROW
 DATA PATH      :
 TREATMENT  1   : 0 KG N/HA                 PRFRM046

@YEAR DOY   DAS   DAP  L#SD  GSTD  LAID  LWAD  SWAD  QWAD  QS%D  Q1%D  GWAD  RWAD  CWAD  G#AD   GWGD  HIAD  PWAD  P#AD  WSPD  WSGD  NSTD  EWSD  LN%D  SH%D  HIPD  PWDD  PWTD  SLAD  CHTD  CWID  NWAD  RDPD  RL1D  RL2D  RL3D  RL4D  RL5D  RL6D  RL7D  RL8D  RL9D  RL10   CDAD   LDAD   SDAD  QDAD
 2006 005     5     0   1.1     0  5.28  2639   500   500  0.50  0.50     0  1361  3139     0    0.0 0.000     0     0 0.000 0.000 0.000 0.050  4.80  0.00  0.00     0     0 200.0  0.03  0.02   0.0  2.13  0.48  0.48  0.48  0.48  0.48  0.48  0.48  0.48  0.48  0.48      0      0      0      0
 2006 006     6     1   1.1     0  5.28  2639   500   500  0.50  0.50     0  1361  3139     0    0.0 0.000     0     0 0.000 0.000 0.000 0.041  4.80  0.00  0.00     0     0 200.0  0.05  0.02   0.0  2.13  0.48  0.48  0.48  0.48  0.48  0.48  0.48  0.48  0.48  0.48      0      0      0      0
 2006 007     7     2   1.1     0  5.28  2639   500   500  0.50  0.50     0  1361  3139     0    0.0 0.000     0     0 0.000 0.000 0.000 0.031  4.80  0.00  0.00     0     0 200.0  0.07  0.02   0.0  2.13  0.48  0.48  0.48  0.48  0.48  0.48  0.48  0.48  0.48  0.48      0      0      0      0
 2006 008     8     3   1.1     0  5.28  2639   500   500  0.50  0.50     0  1361  3139     0    0.0 0.000     0     0 0.000 0.000 0.000 0.020  4.80  0.00  0.00     0     0 200.0  0.09  0.02   0.0  2.13  0.48  0.48  0.48  0.48  0.48  0.48  0.48  0.48  0.48  0.48      0      0      0      0
 2006 009     9     4   1.2     0  5.28  2639   500   500  0.50  0.50     0  1361  3139     0    0.0 0.000     0     0 0.000 0.000 0.000 0.007  4.80  0.00  0.00     0     0 200.0  0.11  0.02   0.0  2.13  0.48  0.48  0.48  0.48  0.48  0.48  0.48  0.48  0.48  0.48      0      0      0      0
 2006 010    10     5   1.3     0  5.28  2639   500   500  0.50  0.50     0  1361  3139     0    0.0 0.000     0     0 0.000 0.000 0.000 0.000  4.80  0.00  0.00     0     0 200.0  0.14  0.02   0.0  2.13  0.48  0.48  0.48  0.48  0.48  0.48  0.48  0.48  0.48  0.48      0      0      0      0
 2006 011    11     6   1.4     0  5.30  2646   501   611  0.50  0.50     0  1365  3148     0    0.0 0.000     0     0 0.000 0.000 0.000 0.000  4.80  0.00  0.00     0     0 200.1  0.17  0.02   0.0  2.13  0.48  0.48  0.48  0.48  0.48  0.48  0.48  0.48  0.48  0.48      0      0      0      0
 2006 012    12     7   1.5     0  5.31  2651   502   693  0.50  0.50     0  1368  3154     0    0.0 0.000     0     0 0.000 0.000 0.000 0.000  4.80  0.00  0.00     0     0 200.1  0.21  0.02   0.0  2.13  0.48  0.48  0.48  0.48  0.48  0.48  0.48  0.48  0.48  0.48      0      0      0      0
 2006 013    13     8   1.6     0  5.32  2656   503   767  0.50  0.50     0  1370  3159     0    0.0 0.000     0     0 0.000 0.000 0.000 0.000  4.80  0.00  0.00     0     0 200.3  0.27  0.02   0.0  2.13  0.49  0.49  0.49  0.49  0.49  0.48  0.48  0.48  0.48  0.48      0      0      0      0

*DSSAT Cropping System Model Ver. 4.6.0.030 -forage       MAR 27, 2014; 06:11:48

*RUN   2        : 45 KG N/HA                PRFRM046 UFGA0601    2
 MODEL          : PRFRM046 - Tifton 85 bermud
 EXPERIMENT     : UFGA0601 G0 NITROGEN RESPONSE OF TIFTON 85 BERMUDAGRASS REGROW
 DATA PATH      :
 TREATMENT  2   : 45 KG N/HA                PRFRM046

@YEAR DOY   DAS   DAP  L#SD  GSTD  LAID  LWAD  SWAD  QWAD  QS%D  Q1%D  GWAD  RWAD  CWAD  G#AD   GWGD  HIAD  PWAD  P#AD  WSPD  WSGD  NSTD  EWSD  LN%D  SH%D  HIPD  PWDD  PWTD  SLAD  CHTD  CWID  NWAD  RDPD  RL1D  RL2D  RL3D  RL4D  RL5D  RL6D  RL7D  RL8D  RL9D  RL10   CDAD   LDAD   SDAD  QDAD
 2006 005     5     0   1.1     0  5.28  2639   500   500  0.50  0.50     0  1361  3139     0    0.0 0.000     0     0 0.000 0.000 0.000 0.050  4.80  0.00  0.00     0     0 200.0  0.03  0.02   0.0  2.13  0.48  0.48  0.48  0.48  0.48  0.48  0.48  0.48  0.48  0.48      0      0      0      0
 2006 006     6     1   1.1     0  5.28  2639   500   500  0.50  0.50     0  1361  3139     0    0.0 0.000     0     0 0.000 0.000 0.000 0.041  4.80  0.00  0.00     0     0 200.0  0.05  0.02   0.0  2.13  0.48  0.48  0.48  0.48  0.48  0.48  0.48  0.48  0.48  0.48      0      0      0      0
 2006 007     7     2   1.1     0  5.28  2639   500   500  0.50  0.50     0  1361  3139     0    0.0 0.000     0     0 0.000 0.000 0.000 0.031  4.80  0.00  0.00     0     0 200.0  0.07  0.02   0.0  2.13  0.48  0.48  0.48  0.48  0.48  0.48  0.48  0.48  0.48  0.48      0      0      0      0
 2006 008     8     3   1.1     0  5.28  2639   500   500  0.50  0.50     0  1361  3139     0    0.0 0.000     0     0 0.000 0.000 0.000 0.020  4.80  0.00  0.00     0     0 200.0  0.09  0.02   0.0  2.13  0.48  0.48  0.48  0.48  0.48  0.48  0.48  0.48  0.48  0.48      0      0      0      0
 2006 009     9     4   1.2     0  5.28  2639   500   500  0.50  0.50     0  1361  3139     0    0.0 0.000     0     0 0.000 0.000 0.000 0.007  4.80  0.00  0.00     0     0 200.0  0.11  0.02   0.0  2.13  0.48  0.48  0.48  0.48  0.48  0.48  0.48  0.48  0.48  0.48      0      0      0      0
 2006 010    10     5   1.3     0  5.28  2639   500   500  0.50  0.50     0  1361  3139     0    0.0 0.000     0     0 0.000 0.000 0.000 0.000  4.80  0.00  0.00     0     0 200.0  0.14  0.02   0.0  2.13  0.48  0.48  0.48  0.48  0.48  0.48  0.48  0.48  0.48  0.48      0      0      0      0
 2006 011    11     6   1.4     0  5.30  2646   501   611  0.50  0.50     0  1365  3148     0    0.0 0.000     0     0 0.000 0.000 0.000 0.000  4.80  0.00  0.00     0     0 200.1  0.17  0.02   0.0  2.13  0.48  0.48  0.48  0.48  0.48  0.48  0.48  0.48  0.48  0.48      0      0      0      0
 2006 012    12     7   1.5     0  5.31  2651   502   693  0.50  0.50     0  1368  3154     0    0.0 0.000     0     0 0.000 0.000 0.000 0.000  4.80  0.00  0.00     0     0 200.1  0.21  0.02   0.0  2.13  0.48  0.48  0.48  0.48  0.48  0.48  0.48  0.48  0.48  0.48      0      0      0      0
 2006 013    13     8   1.6     0  5.32  2656   503   767  0.50  0.50     0  1370  3159     0    0.0 0.000     0     0 0.000 0.000 0.000 0.000  4.80  0.00  0.00     0     0 200.3  0.27  0.02   0.0  2.13  0.49  0.49  0.49  0.49  0.49  0.48  0.48  0.48  0.48  0.48      0      0      0      0

*DSSAT Cropping System Model Ver. 4.6.0.030 -forage       MAR 27, 2014; 06:11:49

*RUN   3        : 90 KG N/HA                PRFRM046 UFGA0601    3
 MODEL          : PRFRM046 - Tifton 85 bermud
 EXPERIMENT     : UFGA0601 G0 NITROGEN RESPONSE OF TIFTON 85 BERMUDAGRASS REGROW
 DATA PATH      :
 TREATMENT  3   : 90 KG N/HA                PRFRM046

@YEAR DOY   DAS   DAP  L#SD  GSTD  LAID  LWAD  SWAD  QWAD  QS%D  Q1%D  GWAD  RWAD  CWAD  G#AD   GWGD  HIAD  PWAD  P#AD  WSPD  WSGD  NSTD  EWSD  LN%D  SH%D  HIPD  PWDD  PWTD  SLAD  CHTD  CWID  NWAD  RDPD  RL1D  RL2D  RL3D  RL4D  RL5D  RL6D  RL7D  RL8D  RL9D  RL10   CDAD   LDAD   SDAD  QDAD
 2006 005     5     0   1.1     0  5.28  2639   500   500  0.50  0.50     0  1361  3139     0    0.0 0.000     0     0 0.000 0.000 0.000 0.050  4.80  0.00  0.00     0     0 200.0  0.03  0.02   0.0  2.13  0.48  0.48  0.48  0.48  0.48  0.48  0.48  0.48  0.48  0.48      0      0      0      0
 2006 006     6     1   1.1     0  5.28  2639   500   500  0.50  0.50     0  1361  3139     0    0.0 0.000     0     0 0.000 0.000 0.000 0.041  4.80  0.00  0.00     0     0 200.0  0.05  0.02   0.0  2.13  0.48  0.48  0.48  0.48  0.48  0.48  0.48  0.48  0.48  0.48      0      0      0      0
 2006 007     7     2   1.1     0  5.28  2639   500   500  0.50  0.50     0  1361  3139     0    0.0 0.000     0     0 0.000 0.000 0.000 0.031  4.80  0.00  0.00     0     0 200.0  0.07  0.02   0.0  2.13  0.48  0.48  0.48  0.48  0.48  0.48  0.48  0.48  0.48  0.48      0      0      0      0
 2006 008     8     3   1.1     0  5.28  2639   500   500  0.50  0.50     0  1361  3139     0    0.0 0.000     0     0 0.000 0.000 0.000 0.020  4.80  0.00  0.00     0     0 200.0  0.09  0.02   0.0  2.13  0.48  0.48  0.48  0.48  0.48  0.48  0.48  0.48  0.48  0.48      0      0      0      0
 2006 009     9     4   1.2     0  5.28  2639   500   500  0.50  0.50     0  1361  3139     0    0.0 0.000     0     0 0.000 0.000 0.000 0.007  4.80  0.00  0.00     0     0 200.0  0.11  0.02   0.0  2.13  0.48  0.48  0.48  0.48  0.48  0.48  0.48  0.48  0.48  0.48      0      0      0      0
 2006 010    10     5   1.3     0  5.28  2639   500   500  0.50  0.50     0  1361  3139     0    0.0 0.000     0     0 0.000 0.000 0.000 0.000  4.80  0.00  0.00     0     0 200.0  0.14  0.02   0.0  2.13  0.48  0.48  0.48  0.48  0.48  0.48  0.48  0.48  0.48  0.48      0      0      0      0
 2006 011    11     6   1.4     0  5.30  2646   501   611  0.50  0.50     0  1365  3148     0    0.0 0.000     0     0 0.000 0.000 0.000 0.000  4.80  0.00  0.00     0     0 200.1  0.17  0.02   0.0  2.13  0.48  0.48  0.48  0.48  0.48  0.48  0.48  0.48  0.48  0.48      0      0      0      0
 2006 012    12     7   1.5     0  5.31  2651   502   693  0.50  0.50     0  1368  3154     0    0.0 0.000     0     0 0.000 0.000 0.000 0.000  4.80  0.00  0.00     0     0 200.1  0.21  0.02   0.0  2.13  0.48  0.48  0.48  0.48  0.48  0.48  0.48  0.48  0.48  0.48      0      0      0      0
 2006 013    13     8   1.6     0  5.32  2656   503   767  0.50  0.50     0  1370  3159     0    0.0 0.000     0     0 0.000 0.000 0.000 0.000  4.80  0.00  0.00     0     0 200.3  0.27  0.02   0.0  2.13  0.49  0.49  0.49  0.49  0.49  0.48  0.48  0.48  0.48  0.48      0      0      0      0

*DSSAT Cropping System Model Ver. 4.6.0.030 -forage       MAR 27, 2014; 06:11:49

*RUN   4        : 135 KG N/HA               PRFRM046 UFGA0601    4
 MODEL          : PRFRM046 - Tifton 85 bermud
 EXPERIMENT     : UFGA0601 G0 NITROGEN RESPONSE OF TIFTON 85 BERMUDAGRASS REGROW
 DATA PATH      :
 TREATMENT  4   : 135 KG N/HA               PRFRM046

@YEAR DOY   DAS   DAP  L#SD  GSTD  LAID  LWAD  SWAD  QWAD  QS%D  Q1%D  GWAD  RWAD  CWAD  G#AD   GWGD  HIAD  PWAD  P#AD  WSPD  WSGD  NSTD  EWSD  LN%D  SH%D  HIPD  PWDD  PWTD  SLAD  CHTD  CWID  NWAD  RDPD  RL1D  RL2D  RL3D  RL4D  RL5D  RL6D  RL7D  RL8D  RL9D  RL10   CDAD   LDAD   SDAD  QDAD
 2006 005     5     0   1.1     0  5.28  2639   500   500  0.50  0.50     0  1361  3139     0    0.0 0.000     0     0 0.000 0.000 0.000 0.050  4.80  0.00  0.00     0     0 200.0  0.03  0.02   0.0  2.13  0.48  0.48  0.48  0.48  0.48  0.48  0.48  0.48  0.48  0.48      0      0      0      0
 2006 006     6     1   1.1     0  5.28  2639   500   500  0.50  0.50     0  1361  3139     0    0.0 0.000     0     0 0.000 0.000 0.000 0.041  4.80  0.00  0.00     0     0 200.0  0.05  0.02   0.0  2.13  0.48  0.48  0.48  0.48  0.48  0.48  0.48  0.48  0.48  0.48      0      0      0      0
 2006 007     7     2   1.1     0  5.28  2639   500   500  0.50  0.50     0  1361  3139     0    0.0 0.000     0     0 0.000 0.000 0.000 0.031  4.80  0.00  0.00     0     0 200.0  0.07  0.02   0.0  2.13  0.48  0.48  0.48  0.48  0.48  0.48  0.48  0.48  0.48  0.48      0      0      0      0
 2006 008     8     3   1.1     0  5.28  2639   500   500  0.50  0.50     0  1361  3139     0    0.0 0.000     0     0 0.000 0.000 0.000 0.020  4.80  0.00  0.00     0     0 200.0  0.09  0.02   0.0  2.13  0.48  0.48  0.48  0.48  0.48  0.48  0.48  0.48  0.48  0.48      0      0      0      0
 2006 009     9     4   1.2     0  5.28  2639   500   500  0.50  0.50     0  1361  3139     0    0.0 0.000     0     0 0.000 0.000 0.000 0.007  4.80  0.00  0.00     0     0 200.0  0.11  0.02   0.0  2.13  0.48  0.48  0.48  0.48  0.48  0.48  0.48  0.48  0.48  0.48      0      0      0      0
 2006 010    10     5   1.3     0  5.28  2639   500   500  0.50  0.50     0  1361  3139     0    0.0 0.000     0     0 0.000 0.000 0.000 0.000  4.80  0.00  0.00     0     0 200.0  0.14  0.02   0.0  2.13  0.48  0.48  0.48  0.48  0.48  0.48  0.48  0.48  0.48  0.48      0      0      0      0
 2006 011    11     6   1.4     0  5.30  2646   501   611  0.50  0.50     0  1365  3148     0    0.0 0.000     0     0 0.000 0.000 0.000 0.000  4.80  0.00  0.00     0     0 200.1  0.17  0.02   0.0  2.13  0.48  0.48  0.48  0.48  0.48  0.48  0.48  0.48  0.48  0.48      0      0      0      0
 2006 012    12     7   1.5     0  5.31  2651   502   693  0.50  0.50     0  1368  3154     0    0.0 0.000     0     0 0.000 0.000 0.000 0.000  4.80  0.00  0.00     0     0 200.1  0.21  0.02   0.0  2.13  0.48  0.48  0.48  0.48  0.48  0.48  0.48  0.48  0.48  0.48      0      0      0      0
 2006 013    13     8   1.6     0  5.32  2656   503   767  0.50  0.50     0  1370  3159     0    0.0 0.000     0     0 0.000 0.000 0.000 0.000  4.80  0.00  0.00     0     0 200.3  0.27  0.02   0.0  2.13  0.49  0.49  0.49  0.49  0.49  0.48  0.48  0.48  0.48  0.48      0      0      0      0
